/*--------------------------------*- C++ -*----------------------------------*\
  =========                 |
| \\      /  F ield         | OpenFOAM: The Open Source CFD Toolbox           |
|  \\    /   O peration     | Version:  6.0                                   |
|   \\  /    A nd           | Website:  https://openfoam.org                  |
|    \\/     M anipulation  |                                                 |
\*---------------------------------------------------------------------------*/
FoamFile
{
    version     2.0;
    format      ascii;
    class       dictionary;
    object      controlDict;
}
// * * * * * * * * * * * * * * * * * * * * * * * * * * * * * * * * * * * * * //

application     interFoam;

startFrom       latestTime;

startTime       0;

stopAt          endTime;

endTime         0.1; 

deltaT          1.26E-06;

writeControl    runTime;

writeInterval   0.005;

purgeWrite      0;

writeFormat     binary;

writePrecision  6;

writeCompression off;

timeFormat      scientific;

timePrecision   6;

runTimeModifiable no;

adjustTimeStep  no;

maxCo           0.1;

maxAlphaCo	0.1;

maxDeltaT	0.1;

functions
{

	#includeFunc surfaces
}

// ************************************************************************* //
