/*--------------------------------*- C++ -*----------------------------------*\
  =========                 |
| \\      /  F ield         | OpenFOAM: The Open Source CFD Toolbox           |
|  \\    /   O peration     | Version:  6.0                                   |
|   \\  /    A nd           | Website:  https://openfoam.org                  |
|    \\/     M anipulation  |                                                 |
\*---------------------------------------------------------------------------*/
FoamFile
{
    version     2.0;
    format      ascii;
    class       dictionary;
    object      setFieldsDict;
}
// * * * * * * * * * * * * * * * * * * * * * * * * * * * * * * * * * * * * * //

defaultFieldValues
(
    volScalarFieldValue alpha.water 0
);

regions
(
      zoneToCell
    {
        name "needle";
        fieldValues
        (
            volScalarFieldValue alpha.water 1
        );
    }
 sphereToCell
    {
        centre (0 -0.01 0);
        radius 0.000635;
        fieldValues
        (
            volScalarFieldValue alpha.water 1
        );
    }

  
);

 

// *********************
