/*--------------------------------*- C++ -*----------------------------------*\
  =========                 |
| \\      /  F ield         | OpenFOAM: The Open Source CFD Toolbox           |
|  \\    /   O peration     | Version:  6.0                                   |
|   \\  /    A nd           | Website:  https://openfoam.org                  |
|    \\/     M anipulation  |                                                 |
\*---------------------------------------------------------------------------*/
FoamFile
{
    version     2.0;
    format      ascii;
    class       dictionary;
    object      blockMeshDict;
}
// * * * * * * * * * * * * * * * * * * * * * * * * * * * * * * * * * * * * * //

convertToMeters 0.001;

vertices
(
(0.00000000 -0.00000000 0.00000000)
(0.41860120 -0.00000000 0.01827652)
(0.63439562 -7.50000000 0.02769831)
(1.90318686 -7.50000000 0.08309493)
(0.00000000 -10.00000000 0.00000000)
(0.41860120 -10.00000000 0.01827652)
(0.63439562 -10.00000000 0.02769831)
(1.90318686 -10.00000000 0.08309493)
(0.00000000 -20.00000000 0.00000000)
(0.41860120 -20.00000000 0.01827652)
(0.63439562 -20.00000000 0.02769831)
(1.90318686 -20.00000000 0.08309493)
(0.41860120 -0.00000000 -0.01827652)
(0.63439562 -7.50000000 -0.02769831)
(1.90318686 -7.50000000 -0.08309493)
(0.41860120 -10.00000000 -0.01827652)
(0.63439562 -10.00000000 -0.02769831)
(1.90318686 -10.00000000 -0.08309493)
(0.41860120 -20.00000000 -0.01827652)
(0.63439562 -20.00000000 -0.02769831)
(1.90318686 -20.00000000 -0.08309493)
(3.99619289 -7.50000000 0.17447755)
(3.99619289 -10.00000000 0.17447755)
(3.99619289 -20.00000000 0.17447755)
(3.99619289 -7.50000000 -0.17447755)
(3.99619289 -10.00000000 -0.17447755)
(3.99619289 -20.00000000 -0.17447755)

);

blocks
(
hex (0 1 5 4 0 12 15 4) needle (40 980 1) simpleGrading (1 1 1) 
hex (2 3 7 6 13 14 17 16) (124 60 1) simpleGrading (1 0.1 1) 
hex (4 5 9 8 4 15 18 8) (40 980 1) simpleGrading (1 1 1) 
hex (5 6 10 9 15 16 19 18) (22 980 1) simpleGrading (1 1 1) 
hex (6 7 11 10 16 17 20 19) (124 980 1) simpleGrading (1 1 1) 

hex (3  21 22 7 14 24 25 17) (50 60 1) simpleGrading (6 0.1 1) 
hex (7 22 23 11 17 25 26 20) (50 980 1) simpleGrading (6 1 1) 

);

edges
(
);

boundary
(
    inlet
    {
        type patch;
        faces
        (
            (0 1 12 0)
        );
    }

    outlet
    {
        type patch;
        faces
        (
            (8 9 18 8)
            (9 10 19 18)
			(11 23 26 20)
            (10 11 20 19)
        );
    }

    atmosphere
    {
        type patch;
        faces
        (
            (23 22  25 26)
            (22 21 24 25)
			(21 3 14 24)
            (3 2 13 14)
		);
    }

    wall_no_wet
     {
        type wall;
        faces
        (
            (2 6 16 13)
            (5 6 16 15)
        );
    }

    wall_wet
     {
        type wall;
        faces
        (
            (1 5 15 12)
        );
    }
    axis
    {
        type empty;
        faces
        (
            (0 4 4 0)
            (4 8 8 4)         
        );
    }
    wFront
    {
        type wedge;
        faces
        (
            (0 1 5 4)
            (4 5 9 8)
            (5 6 10 9)
            (6 7 11 10)
            (2 3 7 6)
	    (3 21 22 7)
	    (7 22 23 11)       
        );
    }
    
    wBack
    {
        type wedge;
        faces
        (
            (0 12 15 4)
            (4 15 18 8)   
            (15 16 19 18)
            (16 17 20 19)
            (13 14 17 16)
	    (14 24 25 17)  
	    (17 25 26 20)         
        );
    }
);

mergePatchPairs
(
);

// ************************************************************************* //
